12
Point_10/orca10.out	Energy:    -232.0111532
C          1.49994       -2.84789       -0.00000
H          2.83462       -2.95007        0.00000
C          0.90575       -1.60895       -0.00000
H          1.66158       -0.50417        0.00000
C         -0.46431       -1.50406        0.00000
H         -1.04316       -0.29710       -0.00000
C         -1.24017       -2.63812       -0.00000
H         -2.57486       -2.53594        0.00000
C         -0.64598       -3.87707       -0.00000
H         -1.40181       -4.98185        0.00000
C          0.72408       -3.98196        0.00000
H          1.30293       -5.18891       -0.00000
