12
Point_13/orca13.out	Energy:    -231.6713868
C          1.48890       -2.84705        0.00000
H          3.12601       -2.97238        0.00000
C          0.89950       -1.61808        0.00000
H          1.82659       -0.26298        0.00000
C         -0.45952       -1.51404        0.00000
H         -1.16954       -0.03361       -0.00000
C         -1.22914       -2.63897       -0.00000
H         -2.86624       -2.51364        0.00000
C         -0.63973       -3.86793        0.00000
H         -1.56682       -5.22304        0.00000
C          0.71929       -3.97197        0.00000
H          1.42930       -5.45242       -0.00000
