12
Point_14/orca14.out	Energy:    -231.5501224
C          1.48458       -2.84672       -0.00000
H          3.23113       -2.98043        0.00000
C          0.89705       -1.62166       -0.00000
H          1.88612       -0.17596        0.00000
C         -0.45765       -1.51795        0.00000
H         -1.21513        0.06146       -0.00000
C         -1.22481       -2.63930       -0.00000
H         -2.97137       -2.50559        0.00000
C         -0.63728       -3.86435       -0.00000
H         -1.62635       -5.31006        0.00000
C          0.71742       -3.96806        0.00000
H          1.47490       -5.54748       -0.00000
