12
Point_15/orca15.out	Energy:    -231.4333216
C          1.47991       -2.84636       -0.00000
H          3.33840       -2.98864        0.00000
C          0.89440       -1.62553        0.00000
H          1.94686       -0.08717       -0.00000
C         -0.45562       -1.52218        0.00000
H         -1.26165        0.15846       -0.00000
C         -1.22014       -2.63966       -0.00000
H         -3.07863       -2.49738        0.00000
C         -0.63463       -3.86049        0.00000
H         -1.68710       -5.39885       -0.00000
C          0.71539       -3.96384       -0.00000
H          1.52142       -5.64448       -0.00000
