12
Point_16/orca16.out	Energy:    -231.3244731
C          1.47524       -2.84600        0.00000
H          3.44672       -2.99693        0.00000
C          0.89176       -1.62939        0.00000
H          2.00821        0.00249        0.00000
C         -0.45360       -1.52640        0.00000
H         -1.30863        0.25642       -0.00000
C         -1.21547       -2.64001       -0.00000
H         -3.18695       -2.48909        0.00000
C         -0.63199       -3.85663       -0.00000
H         -1.74844       -5.48851        0.00000
C          0.71337       -3.95962       -0.00000
H          1.56840       -5.74244       -0.00000
