12
Point_17/orca17.out	Energy:    -231.2253899
C          1.47101       -2.84568       -0.00000
H          3.55529       -3.00524        0.00000
C          0.88936       -1.63289        0.00000
H          2.06969        0.09236        0.00000
C         -0.45176       -1.53022       -0.00000
H         -1.35572        0.35459       -0.00000
C         -1.21124       -2.64034        0.00000
H         -3.29552       -2.48077        0.00000
C         -0.62960       -3.85312        0.00000
H         -1.80992       -5.57838        0.00000
C          0.71153       -3.95580       -0.00000
H          1.61548       -5.84061       -0.00000
