12
Point_2/orca2.out	Energy:    -231.9112369
C          1.52314       -2.84967       -0.00000
H          2.39916       -2.91674       -0.00000
C          0.91888       -1.58975        0.00000
H          1.41498       -0.86462        0.00000
C         -0.47437       -1.48309       -0.00000
H         -0.85430       -0.69089       -0.00000
C         -1.26337       -2.63635       -0.00000
H         -2.13940       -2.56928       -0.00000
C         -0.65911       -3.89627        0.00000
H         -1.15521       -4.62140        0.00000
C          0.73414       -4.00293       -0.00000
H          1.11407       -4.79513       -0.00000
