12
Point_20/orca20.out	Energy:    -230.9906880
C          1.46301       -2.84507        0.00000
H          3.87814       -3.02996        0.00000
C          0.88483       -1.63952       -0.00000
H          2.25252        0.35960        0.00000
C         -0.44829       -1.53746       -0.00000
H         -1.49574        0.64655        0.00000
C         -1.20324       -2.64095       -0.00000
H         -3.61837       -2.45606        0.00000
C         -0.62506       -3.84650        0.00000
H         -1.99275       -5.84562       -0.00000
C          0.70806       -3.94856        0.00000
H          1.75551       -6.13257       -0.00000
