12
Point_22/orca22.out	Energy:    -230.8794024
C          1.46076       -2.84488        0.00000
H          4.08960       -3.04616       -0.00000
C          0.88355       -1.64137       -0.00000
H          2.37228        0.53462        0.00000
C         -0.44732       -1.53949       -0.00000
H         -1.58744        0.83777        0.00000
C         -1.20099       -2.64111       -0.00000
H         -3.82983       -2.43988        0.00000
C         -0.62380       -3.84463        0.00000
H         -2.11249       -6.02066       -0.00000
C          0.70708       -3.94653        0.00000
H          1.84721       -6.32379       -0.00000
