12
Point_23/orca23.out	Energy:    -230.8346560
C          1.46017       -2.84485        0.00000
H          4.19420       -3.05416       -0.00000
C          0.88322       -1.64187       -0.00000
H          2.43151        0.62121        0.00000
C         -0.44706       -1.54003       -0.00000
H         -1.63281        0.93237        0.00000
C         -1.20040       -2.64116       -0.00000
H         -3.93443       -2.43187        0.00000
C         -0.62346       -3.84415        0.00000
H         -2.17173       -6.10724       -0.00000
C          0.70683       -3.94599        0.00000
H          1.89258       -6.41838       -0.00000
