12
Point_25/orca25.out	Energy:    -230.7630557
C          1.45955       -2.84479       -0.00000
H          4.40163       -3.07006        0.00000
C          0.88286       -1.64238       -0.00000
H          2.54898        0.79290        0.00000
C         -0.44679       -1.54059       -0.00000
H         -1.72277        1.11994        0.00000
C         -1.19978       -2.64121        0.00000
H         -4.14186       -2.41600       -0.00000
C         -0.62311       -3.84362        0.00000
H         -2.28918       -6.27894       -0.00000
C          0.70656       -3.94542        0.00000
H          1.98254       -6.60595       -0.00000
