12
Point_26/orca26.out	Energy:    -230.7350260
C          1.45940       -2.84478       -0.00000
H          4.50467       -3.07794        0.00000
C          0.88278       -1.64250       -0.00001
H          2.60734        0.87820        0.00000
C         -0.44673       -1.54072       -0.00000
H         -1.76746        1.21313        0.00000
C         -1.19964       -2.64122        0.00000
H         -4.24491       -2.40811       -0.00000
C         -0.62302       -3.84350        0.00001
H         -2.34753       -6.36423       -0.00000
C          0.70649       -3.94529        0.00000
H          2.02723       -6.69913       -0.00000
