12
Point_27/orca27.out	Energy:    -230.7115300
C          1.45931       -2.84478       -0.00000
H          4.60740       -3.08581        0.00000
C          0.88273       -1.64257       -0.00001
H          2.66552        0.96323        0.00000
C         -0.44669       -1.54080       -0.00000
H         -1.81201        1.30603        0.00000
C         -1.19955       -2.64123        0.00000
H         -4.34764       -2.40025       -0.00000
C         -0.62297       -3.84343        0.00001
H         -2.40571       -6.44927       -0.00000
C          0.70646       -3.94521        0.00000
H          2.07178       -6.79203       -0.00000
