12
Point_29/orca29.out	Energy:    -230.6762804
C          1.45948       -2.84479       -0.00000
H          4.81238       -3.10150        0.00000
C          0.88282       -1.64243       -0.00001
H          2.78161        1.13291        0.00000
C         -0.44677       -1.54064       -0.00001
H         -1.90092        1.49141        0.00000
C         -1.19972       -2.64121        0.00000
H         -4.55263       -2.38456       -0.00000
C         -0.62307       -3.84357        0.00001
H         -2.52179       -6.61895       -0.00000
C          0.70653       -3.94536        0.00001
H          2.16069       -6.97741       -0.00000
