12
Point_3/orca3.out	Energy:    -231.9983126
C          1.52089       -2.84950        0.00000
H          2.42884       -2.91901        0.00000
C          0.91761       -1.59161       -0.00000
H          1.43178       -0.84006       -0.00000
C         -0.47340       -1.48512        0.00000
H         -0.86717       -0.66406        0.00000
C         -1.26112       -2.63652        0.00000
H         -2.16907       -2.56701        0.00000
C         -0.65784       -3.89441       -0.00000
H         -1.17201       -4.64596       -0.00000
C          0.73316       -4.00090        0.00000
H          1.12694       -4.82196        0.00000
