12
Point_30/orca30.out	Energy:    -230.6634744
C          1.45946       -2.84478       -0.00000
H          4.91460       -3.10934        0.00000
C          0.88281       -1.64243       -0.00001
H          2.83951        1.21752        0.00000
C         -0.44677       -1.54065       -0.00001
H         -1.94525        1.58385        0.00000
C         -1.19970       -2.64120        0.00000
H         -4.65485       -2.37674       -0.00000
C         -0.62307       -3.84356        0.00001
H         -2.57967       -6.70357       -0.00000
C          0.70652       -3.94536        0.00001
H          2.20503       -7.06985       -0.00000
