12
Point_35/orca35.out	Energy:    -230.6276997
C          1.45949       -2.84477       -0.00000
H          5.42494       -3.14842        0.00000
C          0.88282       -1.64241       -0.00003
H          3.12852        1.63994        0.00001
C         -0.44678       -1.54064       -0.00003
H         -2.16658        2.04535        0.00001
C         -1.19973       -2.64121        0.00000
H         -5.16519       -2.33768       -0.00000
C         -0.62308       -3.84358        0.00003
H         -2.86867       -7.12601       -0.00001
C          0.70653       -3.94535        0.00003
H          2.42635       -7.53133       -0.00001
