12
Point_36/orca36.out	Energy:    -230.3505260
C          1.45949       -2.84477       -0.00000
H          5.52694       -3.15623        0.00000
C          0.88282       -1.64241       -0.00003
H          3.18629        1.72437        0.00001
C         -0.44679       -1.54063       -0.00003
H         -2.21082        2.13760        0.00001
C         -1.19974       -2.64122        0.00000
H         -5.26720       -2.32987       -0.00000
C         -0.62308       -3.84358        0.00003
H         -2.92643       -7.21044       -0.00001
C          0.70654       -3.94535        0.00003
H          2.47059       -7.62357       -0.00001
