12
Point_37/orca37.out	Energy:    -230.6199766
C          1.45949       -2.84477       -0.00000
H          5.62894       -3.16404        0.00000
C          0.88282       -1.64240       -0.00004
H          3.24405        1.80880        0.00001
C         -0.44679       -1.54063       -0.00004
H         -2.25506        2.22984        0.00001
C         -1.19975       -2.64122        0.00000
H         -5.36920       -2.32206       -0.00000
C         -0.62308       -3.84359        0.00004
H         -2.98419       -7.29488       -0.00001
C          0.70654       -3.94536        0.00004
H          2.51483       -7.71581       -0.00001
