12
Point_38/orca38.out	Energy:    -230.6167438
C          1.45950       -2.84476       -0.00000
H          5.73094       -3.17186        0.00000
C          0.88282       -1.64239       -0.00005
H          3.30182        1.89323        0.00002
C         -0.44680       -1.54062       -0.00005
H         -2.29929        2.32207        0.00001
C         -1.19975       -2.64122        0.00000
H         -5.47120       -2.31425       -0.00000
C         -0.62308       -3.84359        0.00005
H         -3.04195       -7.37930       -0.00002
C          0.70654       -3.94536        0.00005
H          2.55906       -7.80805       -0.00001
