12
Point_4/orca4.out	Energy:    -232.0722340
C          1.51844       -2.84931       -0.00000
H          2.46326       -2.92164       -0.00000
C          0.91622       -1.59363        0.00000
H          1.45127       -0.81156        0.00000
C         -0.47234       -1.48733       -0.00000
H         -0.88210       -0.63293       -0.00000
C         -1.25868       -2.63671       -0.00000
H         -2.20349       -2.56438       -0.00000
C         -0.65646       -3.89239        0.00000
H         -1.19151       -4.67446        0.00000
C          0.73210       -3.99869       -0.00000
H          1.14187       -4.85309       -0.00000
