12
Point_40/orca40.out	Energy:    -230.6111163
C          1.45951       -2.84476       -0.00000
H          5.93491       -3.18748        0.00000
C          0.88282       -1.64238       -0.00007
H          3.41734        2.06207        0.00002
C         -0.44681       -1.54062       -0.00007
H         -2.38775        2.50653        0.00002
C         -1.19976       -2.64123        0.00000
H         -5.67518       -2.29864       -0.00000
C         -0.62308       -3.84360        0.00007
H         -3.15746       -7.54814       -0.00002
C          0.70655       -3.94536        0.00007
H          2.64752       -7.99250       -0.00002
