12
Point_41/orca41.out	Energy:    -230.1890909
C          1.45951       -2.84475        0.00000
H          6.03690       -3.19529        0.00000
C          0.88282       -1.64237       -0.00008
H          3.47510        2.14649        0.00002
C         -0.44682       -1.54062       -0.00008
H         -2.43199        2.59876        0.00002
C         -1.19977       -2.64123       -0.00000
H         -5.77717       -2.29083        0.00000
C         -0.62307       -3.84361        0.00008
H         -3.21521       -7.63256       -0.00002
C          0.70656       -3.94536        0.00008
H          2.69175       -8.08473       -0.00002
