12
Point_43/orca43.out	Energy:    -230.0456662
C          1.45951       -2.84474       -0.00000
H          6.24086       -3.21091        0.00000
C          0.88281       -1.64236       -0.00012
H          3.59061        2.31532        0.00003
C         -0.44684       -1.54061       -0.00012
H         -2.52045        2.78322        0.00003
C         -1.19977       -2.64124        0.00000
H         -5.98114       -2.27522       -0.00000
C         -0.62306       -3.84362        0.00012
H         -3.33072       -7.80140       -0.00003
C          0.70658       -3.94537        0.00012
H          2.78022       -8.26919       -0.00003
