12
Point_45/orca45.out	Energy:    -230.4308961
C          1.45952       -2.84471       -0.00002
H          6.44482       -3.22653        0.00000
C          0.88279       -1.64234       -0.00018
H          3.70612        2.48414        0.00005
C         -0.44686       -1.54061       -0.00016
H         -2.60890        2.96768        0.00004
C         -1.19978       -2.64126        0.00002
H         -6.18510       -2.25961       -0.00000
C         -0.62306       -3.84364        0.00018
H         -3.44623       -7.97023       -0.00005
C          0.70660       -3.94536        0.00016
H          2.86867       -8.45364       -0.00004
