12
Point_6/orca6.out	Energy:    -232.1638967
C          1.51291       -2.84889       -0.00000
H          2.55116       -2.92837       -0.00000
C          0.91309       -1.59821        0.00000
H          1.50105       -0.73880        0.00000
C         -0.46994       -1.49233       -0.00000
H         -0.92023       -0.55344       -0.00000
C         -1.25314       -2.63713       -0.00000
H         -2.29140       -2.55765       -0.00000
C         -0.65332       -3.88781        0.00000
H         -1.24128       -4.74722        0.00000
C          0.72970       -3.99369       -0.00000
H          1.17999       -4.93258       -0.00000
