12
Point_7/orca7.out	Energy:    -232.1718514
C          1.50989       -2.84866       -0.00000
H          2.60750       -2.93269        0.00000
C          0.91138       -1.60071        0.00000
H          1.53296       -0.69217       -0.00000
C         -0.46863       -1.49507       -0.00000
H         -0.94466       -0.50249        0.00000
C         -1.25012       -2.63736       -0.00000
H         -2.34774       -2.55333        0.00000
C         -0.65161       -3.88531        0.00000
H         -1.27319       -4.79385       -0.00000
C          0.72839       -3.99095       -0.00000
H          1.20443       -4.98353        0.00000
