12
Point_8/orca8.out	Energy:    -232.1488917
C          1.50677       -2.84842       -0.00000
H          2.67368       -2.93775       -0.00000
C          0.90962       -1.60329        0.00000
H          1.57044       -0.63739       -0.00000
C         -0.46727       -1.49788       -0.00000
H         -0.97336       -0.44264        0.00000
C         -1.24700       -2.63760       -0.00000
H         -2.41391       -2.54827       -0.00000
C         -0.64985       -3.88273        0.00000
H         -1.31067       -4.84863       -0.00000
C          0.72704       -3.98814       -0.00000
H          1.23313       -5.04338        0.00000
