6
Point_1/orca1.out	Energy:    -115.5330921
C         -3.83840        2.34329        0.03460
O         -2.77205        2.25104       -0.07276
H         -4.34370        3.36630       -0.15446
H         -4.33723        2.05413        1.03719
H         -4.39854        1.68823       -0.68367
H         -2.19718        2.78865        0.51610
