6
Point_10/orca10.out	Energy:    -115.6776458
C         -4.00228        2.34915        0.04195
O         -2.59876        2.23097       -0.09580
H         -4.33981        3.37068       -0.15852
H         -4.33330        2.04969        1.04114
H         -4.43940        1.67838       -0.69429
H         -2.17356        2.81276        0.54252
