6
Point_11/orca11.out	Energy:    -115.6747170
C         -4.03408        2.34952        0.04253
O         -2.56255        2.22821       -0.09904
H         -4.34203        3.37411       -0.16048
H         -4.33549        2.04740        1.04438
H         -4.44935        1.67512       -0.69783
H         -2.16361        2.81727        0.54743
