6
Point_22/orca22.out	Energy:    -115.5059745
C         -4.57468        2.35010        0.04610
O         -1.95639        2.24191       -0.08724
H         -4.55450        3.39469       -0.18432
H         -4.54773        2.02054        1.06361
H         -4.60133        1.63111       -0.74546
H         -1.65248        2.85328        0.58432
