6
Point_23/orca23.out	Energy:    -115.4931719
C         -4.62901        2.34591        0.04177
O         -1.89901        2.25773       -0.07013
H         -4.60243        3.39061       -0.18783
H         -4.59566        2.01718        1.05945
H         -4.63065        1.62669       -0.75017
H         -1.53036        2.85351        0.58391
