6
Point_25/orca25.out	Energy:    -115.4659092
C         -4.75220        2.33785        0.03358
O         -1.80427        2.32631        0.00487
H         -4.76885        3.38288       -0.19463
H         -4.76209        2.01025        1.05192
H         -4.63008        1.62351       -0.75368
H         -1.16962        2.81082        0.53495
