6
Point_26/orca26.out	Energy:    -115.4425876
C         -4.77616        2.43620        0.14197
O         -1.75114        2.16106       -0.17731
H         -5.30944        3.18388       -0.41099
H         -5.30228        1.81117        0.83578
H         -3.71105        2.30918       -0.00377
H         -1.03705        2.59013        0.29132
