6
Point_28/orca28.out	Energy:    -115.3574485
C         -4.89093        2.43374        0.13992
O         -1.63640        2.33036        0.00852
H         -5.43053        3.14146       -0.45611
H         -5.42380        1.76964        0.78977
H         -3.81613        2.39297        0.08922
H         -0.68931        2.42346        0.10569
