6
Point_3/orca3.out	Energy:    -115.5822359
C         -3.86139        2.34494        0.03655
O         -2.74895        2.24781       -0.07644
H         -4.34165        3.36399       -0.15412
H         -4.33519        2.05471        1.03491
H         -4.40306        1.68840       -0.68345
H         -2.19687        2.79178        0.51955
