6
Point_30/orca30.out	Energy:    -115.3417189
C         -4.96123        2.43441        0.14104
O         -1.50019        2.36481        0.04563
H         -5.50070        3.13741       -0.46025
H         -5.49397        1.76553        0.78569
H         -3.88702        2.39882        0.09605
H         -0.54399        2.39065        0.06883
