6
Point_31/orca31.out	Energy:    -115.3348154
C         -4.99573        2.43423        0.14103
O         -1.43241        2.36509        0.04558
H         -5.53402        3.13755       -0.46071
H         -5.52729        1.76488        0.78595
H         -3.92174        2.40201        0.09975
H         -0.47591        2.38787        0.06540
