6
Point_32/orca32.out	Energy:    -115.3282436
C         -5.02970        2.43495        0.14200
O         -1.36398        2.36674        0.04702
H         -5.56844        3.13689       -0.46087
H         -5.56170        1.76459        0.78545
H         -3.95621        2.40430        0.10247
H         -0.40708        2.38415        0.06093
