6
Point_33/orca33.out	Energy:    -115.3220312
C         -5.06399        2.43550        0.14280
O         -1.29571        2.36779        0.04780
H         -5.60237        3.13676       -0.46107
H         -5.59563        1.76422        0.78546
H         -3.99086        2.40633        0.10488
H         -0.33855        2.38102        0.05712
