6
Point_34/orca34.out	Energy:    -115.3161623
C         -5.09816        2.43607        0.14361
O         -1.22737        2.36860        0.04831
H         -5.63646        3.13660       -0.46106
H         -5.62972        1.76406        0.78547
H         -4.02537        2.40815        0.10707
H         -0.27002        2.37816        0.05360
