6
Point_35/orca35.out	Energy:    -115.3106216
C         -5.13232        2.43662        0.14441
O         -1.15905        2.36906        0.04845
H         -5.67055        3.13653       -0.46097
H         -5.66380        1.76398        0.78558
H         -4.05984        2.40982        0.10909
H         -0.20155        2.37562        0.05044
