6
Point_37/orca37.out	Energy:    -115.3005201
C         -5.20059        2.43773        0.14600
O         -1.02242        2.36918        0.04784
H         -5.73874        3.13658       -0.46051
H         -5.73199        1.76405        0.78601
H         -4.12864        2.41275        0.11269
H         -0.06472        2.37133        0.04497
