6
Point_38/orca38.out	Energy:    -115.2959510
C         -5.23472        2.43828        0.14678
O         -0.95413        2.36895        0.04721
H         -5.77283        3.13669       -0.46018
H         -5.76609        1.76419        0.78632
H         -4.16299        2.41404        0.11430
H          0.00365        2.36948        0.04257
