6
Point_39/orca39.out	Energy:    -115.2916992
C         -5.26884        2.43882        0.14757
O         -0.88586        2.36857        0.04643
H         -5.80693        3.13685       -0.45979
H         -5.80018        1.76437        0.78668
H         -4.19730        2.41524        0.11580
H          0.07200        2.36778        0.04032
