6
Point_4/orca4.out	Energy:    -115.6045106
C         -3.87505        2.34549        0.03723
O         -2.73543        2.24622       -0.07826
H         -4.34102        3.36327       -0.15362
H         -4.33457        2.05527        1.03424
H         -4.40570        1.68782       -0.68408
H         -2.19533        2.79355        0.52149
