6
Point_40/orca40.out	Energy:    -115.2877436
C         -5.30295        2.43936        0.14834
O         -0.81759        2.36808        0.04551
H         -5.84102        3.13705       -0.45936
H         -5.83427        1.76460        0.78709
H         -4.23159        2.41634        0.11720
H          0.14032        2.36619        0.03821
