6
Point_41/orca41.out	Energy:    -115.2840716
C         -5.33706        2.43989        0.14911
O         -0.74934        2.36750        0.04450
H         -5.87512        3.13729       -0.45888
H         -5.86837        1.76487        0.78754
H         -4.26586        2.41738        0.11853
H          0.20863        2.36471        0.03620
