6
Point_43/orca43.out	Energy:    -115.2774987
C         -5.40526        2.44094        0.15064
O         -0.61286        2.36614        0.04226
H         -5.94329        3.13785       -0.45784
H         -5.93654        1.76549        0.78853
H         -4.33434        2.41927        0.12097
H          0.34520        2.36196        0.03243
