6
Point_45/orca45.out	Energy:    -115.2718146
C         -5.47346        2.44197        0.15215
O         -0.47642        2.36458        0.03981
H         -6.01146        3.13850       -0.45669
H         -6.00471        1.76620        0.78963
H         -4.40277        2.42096        0.12321
H          0.48171        2.35941        0.02889
