6
Point_5/orca5.out	Energy:    -115.6249044
C         -3.89011        2.34619        0.03808
O         -2.71980        2.24417       -0.08061
H         -4.34034        3.36305       -0.15366
H         -4.33390        2.05526        1.03401
H         -4.40908        1.68720       -0.68474
H         -2.19389        2.79576        0.52392
