6
Point_9/orca9.out	Energy:    -115.6756395
C         -3.97388        2.34870        0.04130
O         -2.63041        2.23385       -0.09246
H         -4.33882        3.36782       -0.15689
H         -4.33233        2.05159        1.03844
H         -4.43093        1.68113       -0.69131
H         -2.18073        2.80854        0.53791
