12
Point_1/orca1.out	Energy:    -231.4880202
C          1.25147       -2.82887        0.00000
H          2.37060       -2.91455       -0.00000
C          0.76504       -1.81462        0.00000
H          1.39880       -0.88826        0.00000
C         -0.35655       -1.72875       -0.00000
H         -0.84192       -0.71672       -0.00000
C         -0.99171       -2.65714       -0.00000
H         -2.11083       -2.57147        0.00000
C         -0.50527       -3.67140       -0.00000
H         -1.13903       -4.59776       -0.00000
C          0.61632       -3.75727        0.00000
H          1.10168       -4.76930        0.00000
