12
Point_12/orca12.out	Energy:    -232.0966067
C          1.64611       -2.85908       -0.00010
H          2.71459       -2.94089       -0.00002
C          0.98852       -1.48795       -0.00001
H          1.59360       -0.60353       -0.00000
C         -0.52770       -1.37188        0.00010
H         -0.99110       -0.40565        0.00002
C         -1.38634       -2.62693       -0.00007
H         -2.45482       -2.54514       -0.00001
C         -0.72876       -3.99806       -0.00004
H         -1.33383       -4.88249       -0.00001
C          0.78747       -4.11414        0.00012
H          1.25087       -5.08036        0.00002
