12
Point_13/orca13.out	Energy:    -232.0050538
C          1.71964       -2.86471       -0.00084
H          2.78485       -2.94626       -0.00008
C          1.03016       -1.42710        0.00083
H          1.63339       -0.54537        0.00007
C         -0.55959       -1.30539       -0.00083
H         -1.02157       -0.34212       -0.00006
C         -1.45987       -2.62130        0.00083
H         -2.52508       -2.53976        0.00006
C         -0.77039       -4.05892       -0.00083
H         -1.37362       -4.94065       -0.00007
C          0.81936       -4.18063        0.00083
H          1.28134       -5.14390        0.00009
