12
Point_14/orca14.out	Energy:    -231.8763617
C          1.80405       -2.87118        0.00017
H          2.86653       -2.95252       -0.00003
C          1.07796       -1.35723       -0.00017
H          1.67964       -0.47776        0.00002
C         -0.59620       -1.22906        0.00018
H         -1.05700       -0.26825       -0.00001
C         -1.54428       -2.61484       -0.00018
H         -2.60676       -2.53350        0.00001
C         -0.81819       -4.12879        0.00018
H         -1.41988       -5.00826       -0.00003
C          0.85597       -4.25696       -0.00017
H          1.31677       -5.21776        0.00004
