12
Point_16/orca16.out	Energy:    -231.5115798
C          1.98002       -2.88466        0.20341
H          2.99581       -2.96245       -0.13356
C          1.17767       -1.21156       -0.20324
H          1.75285       -0.37070        0.13376
C         -0.67251       -1.06997        0.20314
H         -1.11311       -0.15132       -0.13363
C         -1.72024       -2.60143       -0.20341
H         -2.73608       -2.52354        0.13342
C         -0.91783       -4.27442        0.20350
H         -1.49311       -5.11534       -0.13318
C          0.93224       -4.41601       -0.20339
H          1.37289       -5.33470        0.13317
