12
Point_2/orca2.out	Energy:    -231.6084756
C          1.27112       -2.83038       -0.00000
H          2.38524       -2.91567       -0.00000
C          0.77616       -1.79835       -0.00000
H          1.40709       -0.87614        0.00000
C         -0.36507       -1.71099       -0.00000
H         -0.84827       -0.70348       -0.00000
C         -1.01135       -2.65564       -0.00000
H         -2.12547       -2.57035       -0.00000
C         -0.51640       -3.68766       -0.00000
H         -1.14732       -4.60988       -0.00000
C          0.62484       -3.77503        0.00000
H          1.10804       -4.78254        0.00000
