12
Point_20/orca20.out	Energy:    -230.8956484
C          2.32864       -2.91085       -0.44908
H          2.13534       -2.89942       -1.52950
C          1.37484       -0.91735        0.45107
H          1.25879       -1.08298        1.53120
C         -0.82547       -0.75283       -0.45718
H         -0.74205       -0.93902       -1.53596
C         -2.06418       -2.57360        0.45933
H         -1.86414       -2.59206        1.53827
C         -1.11382       -4.55866       -0.45872
H         -1.00485       -4.39593       -1.53700
C          1.08240       -4.73355        0.45380
H          0.99311       -4.55987        1.53376
