12
Point_21/orca21.out	Energy:    -230.8278964
C          2.48938       -2.92386       -0.39912
H          2.32593       -2.91089       -1.49013
C          1.46429       -0.78836        0.40197
H          1.36888       -0.92497        1.49257
C         -0.89514       -0.61012       -0.40690
H         -0.82190       -0.76511       -1.49677
C         -2.22876       -2.56225        0.40774
H         -2.05516       -2.57498        1.49726
C         -1.20741       -4.69475       -0.40614
H         -1.11213       -4.55282       -1.49616
C          1.15172       -4.87863        0.40248
H          1.07892       -4.72936        1.49320
