12
Point_22/orca22.out	Energy:    -230.7802614
C          2.65101       -2.93605       -0.32684
H          2.54436       -2.92784       -1.42802
C          1.55601       -0.65501        0.32956
H          1.49246       -0.74480        1.43049
C         -0.96501       -0.46322       -0.33432
H         -0.91616       -0.56766       -1.43471
C         -2.39010       -2.54981        0.33532
H         -2.27477       -2.55832        1.43564
C         -1.29896       -4.82913       -0.33346
H         -1.23551       -4.73432       -1.43397
C          1.22202       -5.02411        0.32967
H          1.17327       -4.92583        1.43064
