12
Point_23/orca23.out	Energy:    -230.7137806
C          2.80816       -2.94798       -0.22686
H          2.77167       -2.94514       -1.33464
C          1.64552       -0.52635        0.22961
H          1.62217       -0.55580        1.33734
C         -1.03189       -0.32239       -0.23320
H         -1.01615       -0.36034       -1.34078
C         -2.54798       -2.53790        0.23278
H         -2.50327       -2.54101        1.34022
C         -1.38709       -4.95880       -0.23158
H         -1.36562       -4.92341       -1.33915
C          1.29052       -5.16454        0.22926
H          1.27258       -5.13246        1.33700
