12
Point_24/orca24.out	Energy:    -230.7261411
C          2.93662       -2.95793       -0.15522
H          2.93745       -2.95815       -1.26450
C          1.71934       -0.41764        0.15742
H          1.71568       -0.41964        1.26673
C         -1.08859       -0.20264       -0.16160
H         -1.08634       -0.20998       -1.27091
C         -2.67637       -2.52778        0.16280
H         -2.67227       -2.52789        1.27204
C         -1.46035       -5.06728       -0.16095
H         -1.45830       -5.06256       -1.27024
C          1.34753       -5.28377        0.15755
H          1.34421       -5.28086        1.26688
