12
Point_25/orca25.out	Energy:    -230.6957567
C          3.05646       -2.96714       -0.09918
H          3.06413       -2.96744       -1.20912
C          1.78648       -0.32136        0.10184
H          1.79006       -0.31333        1.21174
C         -1.13938       -0.09791       -0.10516
H         -1.14354       -0.09233       -1.21511
C         -2.79693       -2.51907        0.10427
H         -2.79894       -2.51853        1.21433
C         -1.52750       -5.16457       -0.10367
H         -1.53198       -5.16823       -1.21364
C          1.39840       -5.38867        0.10192
H          1.40136       -5.39752        1.21179
