12
Point_27/orca27.out	Energy:    -230.6394822
C          3.27319       -2.98379        0.01944
H          3.30136       -2.98586       -1.09121
C          1.91022       -0.14092       -0.01718
H          1.92346       -0.11719        1.09349
C         -1.23332        0.10022        0.01379
H         -1.24597        0.12239       -1.09694
C         -3.01286       -2.50234       -0.01396
H         -3.03858       -2.50000        1.09679
C         -1.64985       -5.34527        0.01490
H         -1.66614       -5.36567       -1.09582
C          1.49368       -5.58628       -0.01699
H          1.50340       -5.61141        1.09369
