12
Point_3/orca3.out	Energy:    -231.7224870
C          1.29259       -2.83202       -0.00000
H          2.40107       -2.91688        0.00000
C          0.78833       -1.78058       -0.00000
H          1.41605       -0.86304       -0.00000
C         -0.37438       -1.69157       -0.00000
H         -0.85513       -0.68917       -0.00000
C         -1.03283       -2.65400       -0.00000
H         -2.14130       -2.56914       -0.00000
C         -0.52856       -3.70544       -0.00000
H         -1.15629       -4.62297       -0.00000
C          0.63415       -3.79445       -0.00000
H          1.11490       -4.79685        0.00000
