12
Point_31/orca31.out	Energy:    -230.5432656
C          3.67680       -3.01509        0.15637
H          3.66222       -3.01285       -0.95513
C          2.14035        0.18911       -0.15257
H          2.12262        0.18548        0.95888
C         -1.40345        0.46290        0.14663
H         -1.40805        0.44665       -0.96484
C         -3.40876       -2.47242       -0.14603
H         -3.40000       -2.47158        0.96554
C         -1.87262       -5.67815        0.14823
H         -1.87638       -5.66087       -0.96323
C          1.67129       -5.94860       -0.15265
H          1.65460       -5.94069        0.95880
