12
Point_32/orca32.out	Energy:    -230.5230374
C          3.77597       -3.02278        0.19705
H          3.75411       -3.01952       -0.91423
C          2.19691        0.26668       -0.19197
H          2.16993        0.26492        0.91921
C         -1.44230        0.55002        0.18389
H         -1.45239        0.52714       -0.92733
C         -3.50019       -2.46599       -0.18251
H         -3.49164       -2.46365        0.92896
C         -1.92361       -5.75904        0.18583
H         -1.93347       -5.73302       -0.92533
C          1.71597       -6.03444       -0.19237
H          1.68932       -6.02642        0.91879
