12
Point_33/orca33.out	Energy:    -230.5041737
C          3.87839       -3.03019        0.23358
H          3.84300       -3.02634       -0.87733
C          2.25390        0.34285       -0.22641
H          2.21350        0.34380        0.88435
C         -1.48057        0.63806        0.21477
H         -1.49748        0.60372       -0.89607
C         -3.58854       -2.46070       -0.21210
H         -3.58042       -2.45486        0.89935
C         -1.97293       -5.84207        0.21716
H         -1.99222       -5.80017       -0.89338
C          1.76257       -6.11869       -0.22728
H          1.71943       -6.11150        0.88336
