12
Point_34/orca34.out	Energy:    -230.4867887
C          3.99797       -3.03247        0.28500
H          3.96799       -3.04164       -0.82667
C          2.30888        0.40975       -0.27095
H          2.27002        0.46344        0.83933
C         -1.51738        0.72786        0.24830
H         -1.56744        0.70879       -0.86264
C         -3.65658       -2.46534       -0.24018
H         -3.70856       -2.43361        0.87055
C         -2.00882       -5.93744        0.25039
H         -2.09368       -5.88201       -0.85737
C          1.82194       -6.18930       -0.27204
H          1.74428       -6.24413        0.83628
