12
Point_36/orca36.out	Energy:    -230.4341882
C          4.24020       -2.48648        0.12846
H          4.11157       -3.59140        0.10235
C          1.95507        0.88683       -0.05247
H          2.87130        0.25767        0.00117
C         -2.11568        0.63672       -0.06989
H         -1.09153        1.07090       -0.08720
C         -3.96607       -2.99273        0.12280
H         -3.87738       -1.88433        0.08536
C         -1.70199       -6.38119       -0.03004
H         -2.60409       -5.73341        0.02950
C          2.36626       -6.10169       -0.09916
H          1.37095       -6.59700       -0.13087
