12
Point_37/orca37.out	Energy:    -230.4248316
C          4.33662       -2.49914        0.13076
H          4.22213       -3.60554        0.10146
C          2.01654        0.97417       -0.05052
H          2.93519        0.34863        0.00104
C         -2.15653        0.71948       -0.06289
H         -1.14436        1.18024       -0.09683
C         -4.08194       -2.98746        0.11291
H         -3.97793       -1.87992        0.09337
C         -1.75384       -6.45735       -0.02549
H         -2.66729       -5.82448        0.03010
C          2.41877       -6.20675       -0.10353
H          1.41125       -6.67798       -0.13037
