12
Point_39/orca39.out	Energy:    -230.4079667
C          4.54114       -2.51661        0.13070
H          4.44975       -3.62512        0.10548
C          2.13530        1.14592       -0.04624
H          3.06194        0.53225        0.00356
C         -2.24340        0.90167       -0.07282
H         -1.24094        1.38322       -0.10311
C         -4.29321       -2.97047        0.12267
H         -4.19997       -1.86207        0.10007
C         -1.86973       -6.62257       -0.02692
H         -2.79742       -6.01088        0.02748
C          2.50927       -6.39586       -0.10666
H          1.50587       -6.87559       -0.13420
