12
Point_40/orca40.out	Energy:    -230.4005190
C          4.64456       -2.52469        0.13227
H          4.55664       -3.63347        0.10797
C          2.19392        1.23089       -0.04550
H          3.12208        0.61959        0.00436
C         -2.28763        0.99372       -0.07760
H         -1.28658        1.47824       -0.10594
C         -4.39685       -2.96234        0.12828
H         -4.30638       -1.85378        0.10328
C         -1.92821       -6.70705       -0.02844
H         -2.85789       -6.09851        0.02654
C          2.55369       -6.48852       -0.10855
H          1.55127       -6.97020       -0.13667
