12
Point_41/orca41.out	Energy:    -230.3936804
C          4.74802       -2.53265        0.13494
H          4.66195       -3.64155        0.11037
C          2.25239        1.31574       -0.04506
H          3.18140        0.70573        0.00464
C         -2.33200        1.08593       -0.08027
H         -1.33161        1.57172       -0.10978
C         -4.50043       -2.95436        0.13093
H         -4.41134       -1.84567        0.10756
C         -1.98665       -6.79184       -0.02831
H         -2.91730       -6.18474        0.02588
C          2.59802       -6.58078       -0.11162
H          1.59615       -7.06362       -0.13926
