12
Point_42/orca42.out	Energy:    -230.3873859
C          4.85152       -2.54052        0.13778
H          4.76608       -3.64947        0.11310
C          2.31076        1.40052       -0.04479
H          3.24008        0.79099        0.00505
C         -2.37640        1.17800       -0.08428
H         -1.37620        1.66424       -0.11309
C         -4.60377       -2.94645        0.13548
H         -4.51535       -1.83772        0.11126
C         -2.04506       -6.87666       -0.02908
H         -2.97603       -6.27005        0.02534
C          2.64234       -6.67287       -0.11461
H          1.64064       -7.15610       -0.14215
