12
Point_44/orca44.out	Energy:    -230.3762627
C          5.05839       -2.55610        0.14470
H          4.97238       -3.66505        0.11914
C          2.42737        1.57002       -0.04472
H          3.35638        0.95994        0.00557
C         -2.46522        1.36191       -0.09171
H         -1.46466        1.84752       -0.12044
C         -4.81044       -2.93082        0.14383
H         -4.72151       -1.82208        0.11930
C         -2.16173       -7.04630       -0.02986
H         -3.09232       -6.43901        0.02459
C          2.73098       -6.85671       -0.12174
H          1.72897       -7.33944       -0.14867
