12
Point_45/orca45.out	Energy:    -230.3713542
C          5.16175       -2.56386        0.14861
H          5.07499       -3.67277        0.12252
C          2.48565        1.65475       -0.04485
H          3.41424        1.04400        0.00577
C         -2.50961        1.45373       -0.09562
H         -1.50868        1.93869       -0.12432
C         -4.91374       -2.92304        0.14830
H         -4.82411       -1.81433        0.12347
C         -2.22000       -7.13107       -0.03024
H         -3.15016       -6.52305        0.02435
C          2.77531       -6.94852       -0.12566
H          1.77296       -7.43066       -0.15233
