12
Point_5/orca5.out	Energy:    -231.9262085
C          1.34268       -2.83586       -0.00000
H          2.44078       -2.91992        0.00000
C          0.81669       -1.73912       -0.00000
H          1.43854       -0.83017       -0.00000
C         -0.39611       -1.64627       -0.00000
H         -0.87235       -0.65326       -0.00000
C         -1.08292       -2.65016       -0.00000
H         -2.18101       -2.56610       -0.00000
C         -0.55692       -3.74690       -0.00000
H         -1.17878       -4.65585       -0.00000
C          0.65588       -3.83975       -0.00000
H          1.13212       -4.83276        0.00000
