12
Point_6/orca6.out	Energy:    -232.0096989
C          1.37137       -2.83805       -0.00000
H          2.46467       -2.92175        0.00000
C          0.83294       -1.71537       -0.00000
H          1.45207       -0.81040       -0.00000
C         -0.40855       -1.62033       -0.00000
H         -0.88271       -0.63165       -0.00000
C         -1.11160       -2.64797       -0.00000
H         -2.20490       -2.56427       -0.00000
C         -0.57317       -3.77065       -0.00000
H         -1.19230       -4.67562       -0.00000
C          0.66832       -3.86569       -0.00000
H          1.14248       -4.85436        0.00000
