12
Point_8/orca8.out	Energy:    -232.1316772
C          1.43949       -2.84327        0.00000
H          2.52375       -2.92627        0.00000
C          0.87152       -1.65898       -0.00000
H          1.48553       -0.76150       -0.00000
C         -0.43810       -1.55872       -0.00000
H         -0.90834       -0.57823       -0.00000
C         -1.17973       -2.64275       -0.00000
H         -2.26398       -2.55974       -0.00000
C         -0.61175       -3.82704       -0.00000
H         -1.22576       -4.72452       -0.00000
C          0.69786       -3.92729       -0.00000
H          1.16810       -4.90779        0.00000
