6
Point_1/orca1.out	Energy:     -78.4513222
C         -1.56449        1.27258       -0.00020
C         -0.47326        1.27834       -0.00024
H         -2.19893        0.58912       -0.57788
H         -2.20614        1.94873        0.57809
H          0.16838        0.60163       -0.57787
H          0.16118        1.96124        0.57810
