6
Point_10/orca10.out	Energy:     -78.5553732
C         -1.70149        1.27172       -0.00007
C         -0.33627        1.27891       -0.00003
H         -2.25664        0.56883       -0.59499
H         -2.26404        1.96853        0.59506
H          0.22628        0.58197       -0.59501
H          0.21888        1.98167        0.59504
