6
Point_11/orca11.out	Energy:     -78.5480135
C         -1.72955        1.27159       -0.00009
C         -0.30820        1.27897        0.00006
H         -2.27143        0.56489       -0.59828
H         -2.27887        1.97231        0.59834
H          0.24111        0.57822       -0.59833
H          0.23367        1.98564        0.59829
