6
Point_13/orca13.out	Energy:     -78.5120134
C         -1.80136        1.27117       -0.00003
C         -0.23640        1.27938        0.00003
H         -2.31160        0.55517       -0.60640
H         -2.31914        1.98164        0.60642
H          0.28138        0.56890       -0.60642
H          0.27384        1.99537        0.60640
