6
Point_14/orca14.out	Energy:     -78.4825574
C         -1.84664        1.27089        0.00001
C         -0.19112        1.27965       -0.00001
H         -2.33835        0.54933       -0.61126
H         -2.34596        1.98722        0.61126
H          0.30820        0.56332       -0.61126
H          0.30060        2.00121        0.61126
