6
Point_15/orca15.out	Energy:     -78.4466903
C         -1.89814        1.27026        0.00040
C         -0.13961        1.28029       -0.00040
H         -2.37051        0.54338       -0.61640
H         -2.37817        1.99306        0.61615
H          0.34041        0.55748       -0.61615
H          0.33275        2.00717        0.61640
