6
Point_16/orca16.out	Energy:     -78.4070913
C         -1.95459        1.27003        0.00034
C         -0.08317        1.28051       -0.00034
H         -2.40993        0.53787       -0.62086
H         -2.41765        1.99810        0.62066
H          0.37989        0.55245       -0.62066
H          0.37217        2.01267        0.62086
