6
Point_17/orca17.out	Energy:     -78.3647757
C         -2.00663        1.17527        0.11148
C         -0.03112        1.37523       -0.11143
H         -2.44442        0.57573       -0.65273
H         -2.45207        2.02326        0.57798
H          0.41431        0.52730       -0.57801
H          0.40666        1.97484        0.65271
