6
Point_19/orca19.out	Energy:     -78.3005407
C         -2.11783        1.12960        0.16450
C          0.08008        1.42094       -0.16450
H         -2.52221        0.59169       -0.66630
H         -2.52983        2.03360        0.55964
H          0.49207        0.51694       -0.55964
H          0.48445        1.95885        0.66630
