6
Point_2/orca2.out	Energy:     -78.4712886
C         -1.57407        1.27280       -0.00034
C         -0.46369        1.27893       -0.00105
H         -2.20163        0.58753       -0.57890
H         -2.20898        1.95002        0.57951
H          0.17123        0.59994       -0.57881
H          0.16387        1.96242        0.57960
