6
Point_20/orca20.out	Energy:     -78.2770381
C         -2.17426        1.11246        0.18431
C          0.13650        1.43808       -0.18431
H         -2.56320        0.59796       -0.67043
H         -2.57081        2.03642        0.55258
H          0.53305        0.51412       -0.55258
H          0.52545        1.95259        0.67043
