6
Point_21/orca21.out	Energy:     -78.2590558
C         -2.23073        1.09719        0.20192
C          0.19297        1.45336       -0.20192
H         -2.60371        0.60343       -0.67378
H         -2.61129        2.03860        0.54643
H          0.57354        0.51194       -0.54643
H          0.56595        1.94711        0.67378
