6
Point_23/orca23.out	Energy:     -78.2360940
C         -2.34041        1.06863        0.23483
C          0.30266        1.48191       -0.23483
H         -2.67439        0.61317       -0.67966
H         -2.68194        2.04240        0.53551
H          0.64419        0.50814       -0.53550
H          0.63663        1.93738        0.67966
