6
Point_25/orca25.out	Energy:     -78.2216860
C         -2.44428        1.04015        0.26768
C          0.40651        1.51040       -0.26769
H         -2.71437        0.62094       -0.68573
H         -2.72190        2.04689        0.52665
H          0.68415        0.50366       -0.52663
H          0.67661        1.92958        0.68572
