6
Point_26/orca26.out	Energy:     -78.2161453
C         -2.49434        1.02603        0.28398
C          0.45657        1.52451       -0.28397
H         -2.72277        0.62442       -0.68840
H         -2.73030        2.04892        0.52274
H          0.69255        0.50163       -0.52274
H          0.68502        1.92613        0.68839
