6
Point_28/orca28.out	Energy:     -78.2083728
C         -2.59431        1.00356        0.30978
C          0.55659        1.54699       -0.30979
H         -2.73040        0.62797       -0.69080
H         -2.73792        2.05067        0.51881
H          0.70014        0.49987       -0.51880
H          0.69262        1.92257        0.69080
