6
Point_3/orca3.out	Energy:     -78.4901660
C         -1.58464        1.27229        0.00003
C         -0.45312        1.27823       -0.00001
H         -2.20574        0.58633       -0.58041
H         -2.21299        1.95164        0.58041
H          0.17524        0.59891       -0.58042
H          0.16799        1.96423        0.58040
