6
Point_33/orca33.out	Energy:     -78.2043457
C         -2.85277        0.98392        0.33128
C          0.81504        1.56662       -0.33128
H         -2.76943        0.61761       -0.67846
H         -2.77695        2.03992        0.53082
H          0.73918        0.51063       -0.53082
H          0.73166        1.93294        0.67846
