6
Point_34/orca34.out	Energy:     -78.2041530
C         -2.90532        0.98401        0.33085
C          0.86761        1.56653       -0.33084
H         -2.79411        0.61354       -0.67465
H         -2.80163        2.03666        0.53531
H          0.76385        0.51389       -0.53532
H          0.75633        1.93700        0.67465
