6
Point_35/orca35.out	Energy:     -78.2044515
C         -2.95669        0.98151        0.33346
C          0.91915        1.56900       -0.33343
H         -2.84512        0.61228       -0.67308
H         -2.85264        2.03500        0.53654
H          0.81477        0.51556       -0.53656
H          0.80725        1.93828        0.67306
