6
Point_36/orca36.out	Energy:     -78.2039964
C         -3.00976        0.98259        0.33186
C          0.97232        1.56790       -0.33180
H         -2.87293        0.60778       -0.66876
H         -2.88045        2.03129        0.54153
H          0.84254        0.51928       -0.54156
H          0.83501        1.94278        0.66873
