6
Point_38/orca38.out	Energy:     -78.2042963
C         -3.11055        0.97751        0.33722
C          1.07757        1.57223       -0.33624
H         -2.98030        0.60510       -0.66590
H         -2.98783        2.02824        0.54408
H          0.94768        0.52269       -0.54458
H          0.94016        1.94586        0.66543
