6
Point_39/orca39.out	Energy:     -78.2038257
C         -3.16274        0.97889        0.33526
C          1.13152        1.57042       -0.33378
H         -3.00904        0.60055       -0.66150
H         -3.01656        2.02445        0.54913
H          0.97554        0.52671       -0.54987
H          0.96801        1.95060        0.66075
