6
Point_40/orca40.out	Energy:     -78.2043167
C         -3.20365        0.97292        0.34203
C          1.19205        1.57267       -0.33605
H         -3.07668        0.60159       -0.66214
H         -3.08421        2.02450        0.54765
H          1.03337        0.52838       -0.55076
H          1.02585        1.95157        0.65927
