6
Point_45/orca45.out	Energy:     -78.2044343
C         -3.40148        0.96090        0.35494
C          1.51040        1.58122       -0.34412
H         -3.46472        0.59576       -0.65749
H         -3.47224        2.01847        0.55213
H          1.36114        0.53587       -0.55790
H          1.35362        1.95942        0.65243
