6
Point_7/orca7.out	Energy:     -78.5463700
C         -1.63891        1.27202        0.00001
C         -0.39885        1.27853       -0.00002
H         -2.22727        0.57821       -0.58719
H         -2.23461        1.95951        0.58722
H          0.19685        0.59103       -0.58721
H          0.18952        1.97233        0.58720
