6
Point_9/orca9.out	Energy:     -78.5569036
C         -1.67755        1.27187       -0.00011
C         -0.36021        1.27882       -0.00006
H         -2.24476        0.57228       -0.59208
H         -2.25210        1.96517        0.59218
H          0.21435        0.58530       -0.59210
H          0.20700        1.97819        0.59216
